LTspice 24.0.12 for Windows
Circuit: * C:\Users\Peanat\Desktop\enph 459\electrical\LTspice\motor-phase.asc
Start Time: Mon Jan 13 22:26:30 2025
solver = Normal
Maximum thread count: 8
tnom = 27
temp = 27
method = modified trap
v1: Removing PWL point (1e-06,24)
v1: Removing PWL point (5.3e-05,0)
v1: Removing PWL point (0.000102,24)
v1: Removing PWL point (0.000156,0)
v1: Removing PWL point (0.000202,24)
v1: Removing PWL point (0.00026,0)
v1: Removing PWL point (0.000302,24)
v1: Removing PWL point (0.000363,0)
v1: Removing PWL point (0.000402,24)
v1: Removing PWL point (0.000466,0)
v1: Removing PWL point (0.000502,24)
v1: Removing PWL point (0.000569,0)
v1: Removing PWL point (0.000602,24)
v1: Removing PWL point (0.000672,0)
v1: Removing PWL point (0.000702,24)
v1: Removing PWL point (0.000775,0)
v1: Removing PWL point (0.000802,24)
v1: Removing PWL point (0.000878,0)
v1: Removing PWL point (0.000902,24)
v1: Removing PWL point (0.00098,0)
v1: Removing PWL point (0.001002,24)
v1: Removing PWL point (0.001083,0)
v1: Removing PWL point (0.001102,24)
v1: Removing PWL point (0.001185,0)
v1: Removing PWL point (0.001202,24)
v1: Removing PWL point (0.001288,0)
v1: Removing PWL point (0.001302,24)
v1: Removing PWL point (0.00139,0)
v1: Removing PWL point (0.001402,24)
v1: Removing PWL point (0.001492,0)
v1: Removing PWL point (0.001502,24)
v1: Removing PWL point (0.001594,0)
v1: Removing PWL point (0.001602,24)
v1: Removing PWL point (0.001695,0)
v1: Removing PWL point (0.001702,24)
v1: Removing PWL point (0.001797,0)
v1: Removing PWL point (0.001802,24)
v1: Removing PWL point (0.001898,0)
v1: Removing PWL point (0.001902,24)
v1: Removing PWL point (0.001999,0)
v1: Removing PWL point (0.002002,24)
v1: Removing PWL point (0.002102,24)
v1: Removing PWL point (0.002202,24)
v1: Removing PWL point (0.002302,24)
v1: Removing PWL point (0.002402,24)
v1: Removing PWL point (0.002602,24)
v1: Removing PWL point (0.002702,24)
v1: Removing PWL point (0.002802,24)
v1: Removing PWL point (0.002902,24)
v1: Removing PWL point (0.002999,0)
v1: Removing PWL point (0.003002,24)
v1: Removing PWL point (0.003098,0)
v1: Removing PWL point (0.003102,24)
v1: Removing PWL point (0.003197,0)
v1: Removing PWL point (0.003202,24)
v1: Removing PWL point (0.003295,0)
v1: Removing PWL point (0.003302,24)
v1: Removing PWL point (0.003394,0)
v1: Removing PWL point (0.003402,24)
v1: Removing PWL point (0.003492,0)
v1: Removing PWL point (0.003502,24)
v1: Removing PWL point (0.00359,0)
v1: Removing PWL point (0.003602,24)
v1: Removing PWL point (0.003688,0)
v1: Removing PWL point (0.003702,24)
v1: Removing PWL point (0.003786,0)
v1: Removing PWL point (0.003802,24)
v1: Removing PWL point (0.003884,0)
v1: Removing PWL point (0.003902,24)
v1: Removing PWL point (0.003981,0)
v1: Removing PWL point (0.004002,24)
v1: Removing PWL point (0.004079,0)
v1: Removing PWL point (0.004102,24)
v1: Removing PWL point (0.004176,0)
v1: Removing PWL point (0.004202,24)
v1: Removing PWL point (0.004274,0)
v1: Removing PWL point (0.004302,24)
v1: Removing PWL point (0.004371,0)
v1: Removing PWL point (0.004402,24)
v1: Removing PWL point (0.004468,0)
v1: Removing PWL point (0.004502,24)
v1: Removing PWL point (0.004565,0)
v1: Removing PWL point (0.004602,24)
v1: Removing PWL point (0.004662,0)
v1: Removing PWL point (0.004702,24)
v1: Removing PWL point (0.004759,0)
v1: Removing PWL point (0.004802,24)
v1: Removing PWL point (0.004856,0)
v1: Removing PWL point (0.004902,24)
v1: Removing PWL point (0.004953,0)
v1: Removing PWL point (0.005002,24)
v1: Removing PWL point (0.00505,0)
v1: Removing PWL point (0.005102,24)
v1: Removing PWL point (0.005147,0)
v1: Removing PWL point (0.005202,24)
v1: Removing PWL point (0.005244,0)
v1: Removing PWL point (0.005302,24)
v1: Removing PWL point (0.005341,0)
v1: Removing PWL point (0.005402,24)
v1: Removing PWL point (0.005438,0)
v1: Removing PWL point (0.005502,24)
v1: Removing PWL point (0.005535,0)
v1: Removing PWL point (0.005602,24)
v1: Removing PWL point (0.005632,0)
v1: Removing PWL point (0.005702,24)
v1: Removing PWL point (0.005729,0)
v1: Removing PWL point (0.005802,24)
v1: Removing PWL point (0.005827,0)
v1: Removing PWL point (0.005902,24)
v1: Removing PWL point (0.005924,0)
v1: Removing PWL point (0.006002,24)
v1: Removing PWL point (0.006022,0)
v1: Removing PWL point (0.006102,24)
v1: Removing PWL point (0.006119,0)
v1: Removing PWL point (0.006202,24)
v1: Removing PWL point (0.006217,0)
v1: Removing PWL point (0.006302,24)
v1: Removing PWL point (0.006315,0)
v1: Removing PWL point (0.006402,24)
v1: Removing PWL point (0.006413,0)
v1: Removing PWL point (0.006502,24)
v1: Removing PWL point (0.006511,0)
v1: Removing PWL point (0.006602,24)
v1: Removing PWL point (0.006609,0)
v1: Removing PWL point (0.006702,24)
v1: Removing PWL point (0.006708,0)
v1: Removing PWL point (0.006802,24)
v1: Removing PWL point (0.006806,0)
v1: Removing PWL point (0.006902,24)
v1: Removing PWL point (0.006905,0)
v1: Removing PWL point (0.007004,0)
v1: Removing PWL point (0.007103,0)
v1: Removing PWL point (0.007903,0)
v1: Removing PWL point (0.008004,0)
v1: Removing PWL point (0.008102,24)
v1: Removing PWL point (0.008105,0)
v1: Removing PWL point (0.008202,24)
v1: Removing PWL point (0.008206,0)
v1: Removing PWL point (0.008302,24)
v1: Removing PWL point (0.008308,0)
v1: Removing PWL point (0.008402,24)
v1: Removing PWL point (0.008409,0)
v1: Removing PWL point (0.008502,24)
v1: Removing PWL point (0.008511,0)
v1: Removing PWL point (0.008602,24)
v1: Removing PWL point (0.008613,0)
v1: Removing PWL point (0.008702,24)
v1: Removing PWL point (0.008715,0)
v1: Removing PWL point (0.008802,24)
v1: Removing PWL point (0.008818,0)
v1: Removing PWL point (0.008902,24)
v1: Removing PWL point (0.00892,0)
v1: Removing PWL point (0.009002,24)
v1: Removing PWL point (0.009023,0)
v1: Removing PWL point (0.009101,24)
v1: Removing PWL point (0.009125,0)
v1: Removing PWL point (0.009202,24)
v1: Removing PWL point (0.009228,0)
v1: Removing PWL point (0.009302,24)
v1: Removing PWL point (0.009331,0)
v1: Removing PWL point (0.009402,24)
v1: Removing PWL point (0.009434,0)
v1: Removing PWL point (0.009502,24)
v1: Removing PWL point (0.009537,0)
v1: Removing PWL point (0.009602,24)
v1: Removing PWL point (0.00964,0)
v1: Removing PWL point (0.009702,24)
v1: Removing PWL point (0.009743,0)
v1: Removing PWL point (0.009802,24)
v1: Removing PWL point (0.009847,0)
v1: Removing PWL point (0.009902,24)
v1: Removing PWL point (0.00995,0)
v1: Removing PWL point (0.010002,24)
v1: Removing PWL point (0.010053,0)
v1: Removing PWL point (0.010102,24)
v1: Removing PWL point (0.010156,0)
v1: Removing PWL point (0.010202,24)
v1: Removing PWL point (0.01026,0)
v1: Removing PWL point (0.010302,24)
v1: Removing PWL point (0.010363,0)
v1: Removing PWL point (0.010402,24)
v1: Removing PWL point (0.010466,0)
v1: Removing PWL point (0.010502,24)
v1: Removing PWL point (0.010569,0)
v1: Removing PWL point (0.010602,24)
v1: Removing PWL point (0.010672,0)
v1: Removing PWL point (0.010702,24)
v1: Removing PWL point (0.010775,0)
v1: Removing PWL point (0.010802,24)
v1: Removing PWL point (0.010878,0)
v1: Removing PWL point (0.010902,24)
v1: Removing PWL point (0.01098,0)
v1: Removing PWL point (0.011002,24)
v1: Removing PWL point (0.011083,0)
v1: Removing PWL point (0.011102,24)
v1: Removing PWL point (0.011185,0)
v1: Removing PWL point (0.011202,24)
v1: Removing PWL point (0.011288,0)
v1: Removing PWL point (0.011302,24)
v1: Removing PWL point (0.01139,0)
v1: Removing PWL point (0.011402,24)
v1: Removing PWL point (0.011492,0)
v1: Removing PWL point (0.011502,24)
v1: Removing PWL point (0.011594,0)
v1: Removing PWL point (0.011602,24)
v1: Removing PWL point (0.011695,0)
v1: Removing PWL point (0.011702,24)
v1: Removing PWL point (0.011797,0)
v1: Removing PWL point (0.011802,24)
v1: Removing PWL point (0.011898,0)
v1: Removing PWL point (0.011902,24)
v1: Removing PWL point (0.011999,0)
v1: Removing PWL point (0.012002,24)
v1: Removing PWL point (0.012102,24)
v1: Removing PWL point (0.012202,24)
v1: Removing PWL point (0.012302,24)
v1: Removing PWL point (0.012402,24)
v1: Removing PWL point (0.012602,24)
v1: Removing PWL point (0.012702,24)
v1: Removing PWL point (0.012802,24)
v1: Removing PWL point (0.012902,24)
v1: Removing PWL point (0.012999,0)
v1: Removing PWL point (0.013002,24)
v1: Removing PWL point (0.013098,0)
v1: Removing PWL point (0.013102,24)
v1: Removing PWL point (0.013197,0)
v1: Removing PWL point (0.013202,24)
v1: Removing PWL point (0.013295,0)
v1: Removing PWL point (0.013302,24)
v1: Removing PWL point (0.013394,0)
v1: Removing PWL point (0.013402,24)
v1: Removing PWL point (0.013492,0)
v1: Removing PWL point (0.013502,24)
v1: Removing PWL point (0.01359,0)
v1: Removing PWL point (0.013602,24)
v1: Removing PWL point (0.013688,0)
v1: Removing PWL point (0.013702,24)
v1: Removing PWL point (0.013786,0)
v1: Removing PWL point (0.013802,24)
v1: Removing PWL point (0.013884,0)
v1: Removing PWL point (0.013902,24)
v1: Removing PWL point (0.013981,0)
v1: Removing PWL point (0.014002,24)
v1: Removing PWL point (0.014079,0)
v1: Removing PWL point (0.014102,24)
v1: Removing PWL point (0.014176,0)
v1: Removing PWL point (0.014202,24)
v1: Removing PWL point (0.014274,0)
v1: Removing PWL point (0.014302,24)
v1: Removing PWL point (0.014371,0)
v1: Removing PWL point (0.014402,24)
v1: Removing PWL point (0.014468,0)
v1: Removing PWL point (0.014502,24)
v1: Removing PWL point (0.014565,0)
v1: Removing PWL point (0.014602,24)
v1: Removing PWL point (0.014662,0)
v1: Removing PWL point (0.014702,24)
v1: Removing PWL point (0.014759,0)
v1: Removing PWL point (0.014802,24)
v1: Removing PWL point (0.014856,0)
v1: Removing PWL point (0.014902,24)
v1: Removing PWL point (0.014953,0)
v1: Removing PWL point (0.015002,24)
v1: Removing PWL point (0.01505,0)
v1: Removing PWL point (0.015102,24)
v1: Removing PWL point (0.015147,0)
v1: Removing PWL point (0.015202,24)
v1: Removing PWL point (0.015244,0)
v1: Removing PWL point (0.015302,24)
v1: Removing PWL point (0.015341,0)
v1: Removing PWL point (0.015402,24)
v1: Removing PWL point (0.015438,0)
v1: Removing PWL point (0.015502,24)
v1: Removing PWL point (0.015535,0)
v1: Removing PWL point (0.015602,24)
v1: Removing PWL point (0.015632,0)
v1: Removing PWL point (0.015702,24)
v1: Removing PWL point (0.015729,0)
v1: Removing PWL point (0.015802,24)
v1: Removing PWL point (0.015827,0)
v1: Removing PWL point (0.015901,24)
v1: Removing PWL point (0.015924,0)
v1: Removing PWL point (0.016002,24)
v1: Removing PWL point (0.016022,0)
v1: Removing PWL point (0.016102,24)
v1: Removing PWL point (0.016119,0)
v1: Removing PWL point (0.016202,24)
v1: Removing PWL point (0.016217,0)
v1: Removing PWL point (0.016302,24)
v1: Removing PWL point (0.016315,0)
v1: Removing PWL point (0.016402,24)
v1: Removing PWL point (0.016413,0)
v1: Removing PWL point (0.016502,24)
v1: Removing PWL point (0.016511,0)
v1: Removing PWL point (0.016602,24)
v1: Removing PWL point (0.016609,0)
v1: Removing PWL point (0.016702,24)
v1: Removing PWL point (0.016708,0)
v1: Removing PWL point (0.016802,24)
v1: Removing PWL point (0.016806,0)
v1: Removing PWL point (0.016902,24)
v1: Removing PWL point (0.016905,0)
v1: Removing PWL point (0.017004,0)
v1: Removing PWL point (0.017103,0)
v1: Removing PWL point (0.017903,0)
v1: Removing PWL point (0.018004,0)
v1: Removing PWL point (0.018102,24)
v1: Removing PWL point (0.018105,0)
v1: Removing PWL point (0.018201,24)
v1: Removing PWL point (0.018206,0)
v1: Removing PWL point (0.018302,24)
v1: Removing PWL point (0.018308,0)
v1: Removing PWL point (0.018402,24)
v1: Removing PWL point (0.018409,0)
v1: Removing PWL point (0.018502,24)
v1: Removing PWL point (0.018511,0)
v1: Removing PWL point (0.018602,24)
v1: Removing PWL point (0.018613,0)
v1: Removing PWL point (0.018702,24)
v1: Removing PWL point (0.018715,0)
v1: Removing PWL point (0.018802,24)
v1: Removing PWL point (0.018818,0)
v1: Removing PWL point (0.018902,24)
v1: Removing PWL point (0.01892,0)
v1: Removing PWL point (0.019002,24)
v1: Removing PWL point (0.019023,0)
v1: Removing PWL point (0.019102,24)
v1: Removing PWL point (0.019125,0)
v1: Removing PWL point (0.019202,24)
v1: Removing PWL point (0.019228,0)
v1: Removing PWL point (0.019302,24)
v1: Removing PWL point (0.019331,0)
v1: Removing PWL point (0.019402,24)
v1: Removing PWL point (0.019434,0)
v1: Removing PWL point (0.019502,24)
v1: Removing PWL point (0.019537,0)
v1: Removing PWL point (0.019602,24)
v1: Removing PWL point (0.01964,0)
v1: Removing PWL point (0.019702,24)
v1: Removing PWL point (0.019743,0)
v1: Removing PWL point (0.019802,24)
v1: Removing PWL point (0.019847,0)
v1: Removing PWL point (0.019902,24)
v1: Removing PWL point (0.01995,0)
v1: Removing PWL point (0.020002,24)
v1: Removing PWL point (0.020053,0)
v1: Removing PWL point (0.020102,24)
v1: Removing PWL point (0.020156,0)
v1: Removing PWL point (0.020202,24)
v1: Removing PWL point (0.02026,0)
v1: Removing PWL point (0.020302,24)
v1: Removing PWL point (0.020363,0)
v1: Removing PWL point (0.020402,24)
v1: Removing PWL point (0.020466,0)
v1: Removing PWL point (0.020502,24)
v1: Removing PWL point (0.020569,0)
v1: Removing PWL point (0.020602,24)
v1: Removing PWL point (0.020672,0)
v1: Removing PWL point (0.020702,24)
v1: Removing PWL point (0.020775,0)
v1: Removing PWL point (0.020802,24)
v1: Removing PWL point (0.020878,0)
v1: Removing PWL point (0.020902,24)
v1: Removing PWL point (0.02098,0)
v1: Removing PWL point (0.021002,24)
v1: Removing PWL point (0.021083,0)
v1: Removing PWL point (0.021102,24)
v1: Removing PWL point (0.021185,0)
v1: Removing PWL point (0.021202,24)
v1: Removing PWL point (0.021288,0)
v1: Removing PWL point (0.021302,24)
v1: Removing PWL point (0.02139,0)
v1: Removing PWL point (0.021402,24)
v1: Removing PWL point (0.021492,0)
v1: Removing PWL point (0.021502,24)
v1: Removing PWL point (0.021594,0)
v1: Removing PWL point (0.021602,24)
v1: Removing PWL point (0.021695,0)
v1: Removing PWL point (0.021702,24)
v1: Removing PWL point (0.021797,0)
v1: Removing PWL point (0.021802,24)
v1: Removing PWL point (0.021898,0)
v1: Removing PWL point (0.021902,24)
v1: Removing PWL point (0.021999,0)
v1: Removing PWL point (0.022002,24)
v1: Removing PWL point (0.022102,24)
v1: Removing PWL point (0.022202,24)
v1: Removing PWL point (0.022302,24)
v1: Removing PWL point (0.022402,24)
v1: Removing PWL point (0.022602,24)
v1: Removing PWL point (0.022702,24)
v1: Removing PWL point (0.022802,24)
v1: Removing PWL point (0.022902,24)
v1: Removing PWL point (0.022999,0)
v1: Removing PWL point (0.023002,24)
v1: Removing PWL point (0.023098,0)
v1: Removing PWL point (0.023102,24)
v1: Removing PWL point (0.023197,0)
v1: Removing PWL point (0.023202,24)
v1: Removing PWL point (0.023295,0)
v1: Removing PWL point (0.023302,24)
v1: Removing PWL point (0.023394,0)
v1: Removing PWL point (0.023402,24)
v1: Removing PWL point (0.023492,0)
v1: Removing PWL point (0.023502,24)
v1: Removing PWL point (0.02359,0)
v1: Removing PWL point (0.023602,24)
v1: Removing PWL point (0.023688,0)
v1: Removing PWL point (0.023702,24)
v1: Removing PWL point (0.023786,0)
v1: Removing PWL point (0.023802,24)
v1: Removing PWL point (0.023884,0)
v1: Removing PWL point (0.023902,24)
v1: Removing PWL point (0.023981,0)
v1: Removing PWL point (0.024002,24)
v1: Removing PWL point (0.024079,0)
v1: Removing PWL point (0.024102,24)
v1: Removing PWL point (0.024176,0)
v1: Removing PWL point (0.024202,24)
v1: Removing PWL point (0.024274,0)
v1: Removing PWL point (0.024302,24)
v1: Removing PWL point (0.024371,0)
v1: Removing PWL point (0.024402,24)
v1: Removing PWL point (0.024468,0)
v1: Removing PWL point (0.024502,24)
v1: Removing PWL point (0.024565,0)
v1: Removing PWL point (0.024602,24)
v1: Removing PWL point (0.024662,0)
v1: Removing PWL point (0.024702,24)
v1: Removing PWL point (0.024759,0)
v1: Removing PWL point (0.024802,24)
v1: Removing PWL point (0.024856,0)
v1: Removing PWL point (0.024902,24)
v1: Removing PWL point (0.024953,0)
v1: Removing PWL point (0.025002,24)
v1: Removing PWL point (0.02505,0)
v1: Removing PWL point (0.025102,24)
v1: Removing PWL point (0.025147,0)
v1: Removing PWL point (0.025202,24)
v1: Removing PWL point (0.025244,0)
v1: Removing PWL point (0.025302,24)
v1: Removing PWL point (0.025341,0)
v1: Removing PWL point (0.025402,24)
v1: Removing PWL point (0.025438,0)
v1: Removing PWL point (0.025502,24)
v1: Removing PWL point (0.025535,0)
v1: Removing PWL point (0.025602,24)
v1: Removing PWL point (0.025632,0)
v1: Removing PWL point (0.025702,24)
v1: Removing PWL point (0.025729,0)
v1: Removing PWL point (0.025802,24)
v1: Removing PWL point (0.025827,0)
v1: Removing PWL point (0.025902,24)
v1: Removing PWL point (0.025924,0)
v1: Removing PWL point (0.026002,24)
v1: Removing PWL point (0.026022,0)
v1: Removing PWL point (0.026102,24)
v1: Removing PWL point (0.026119,0)
v1: Removing PWL point (0.026202,24)
v1: Removing PWL point (0.026217,0)
v1: Removing PWL point (0.026302,24)
v1: Removing PWL point (0.026315,0)
v1: Removing PWL point (0.026402,24)
v1: Removing PWL point (0.026413,0)
v1: Removing PWL point (0.026502,24)
v1: Removing PWL point (0.026511,0)
v1: Removing PWL point (0.026602,24)
v1: Removing PWL point (0.026609,0)
v1: Removing PWL point (0.026702,24)
v1: Removing PWL point (0.026708,0)
v1: Removing PWL point (0.026802,24)
v1: Removing PWL point (0.026806,0)
v1: Removing PWL point (0.026902,24)
v1: Removing PWL point (0.026905,0)
v1: Removing PWL point (0.027004,0)
v1: Removing PWL point (0.027103,0)
v1: Removing PWL point (0.027903,0)
v1: Removing PWL point (0.028004,0)
v1: Removing PWL point (0.028102,24)
v1: Removing PWL point (0.028105,0)
v1: Removing PWL point (0.028202,24)
v1: Removing PWL point (0.028206,0)
v1: Removing PWL point (0.028302,24)
v1: Removing PWL point (0.028308,0)
v1: Removing PWL point (0.028402,24)
v1: Removing PWL point (0.028409,0)
v1: Removing PWL point (0.028502,24)
v1: Removing PWL point (0.028511,0)
v1: Removing PWL point (0.028602,24)
v1: Removing PWL point (0.028613,0)
v1: Removing PWL point (0.028702,24)
v1: Removing PWL point (0.028715,0)
v1: Removing PWL point (0.028802,24)
v1: Removing PWL point (0.028818,0)
v1: Removing PWL point (0.028902,24)
v1: Removing PWL point (0.02892,0)
v1: Removing PWL point (0.029002,24)
v1: Removing PWL point (0.029023,0)
v1: Removing PWL point (0.029102,24)
v1: Removing PWL point (0.029125,0)
v1: Removing PWL point (0.029202,24)
v1: Removing PWL point (0.029228,0)
v1: Removing PWL point (0.029302,24)
v1: Removing PWL point (0.029331,0)
v1: Removing PWL point (0.029402,24)
v1: Removing PWL point (0.029434,0)
v1: Removing PWL point (0.029502,24)
v1: Removing PWL point (0.029537,0)
v1: Removing PWL point (0.029602,24)
v1: Removing PWL point (0.02964,0)
v1: Removing PWL point (0.029702,24)
v1: Removing PWL point (0.029743,0)
v1: Removing PWL point (0.029802,24)
v1: Removing PWL point (0.029847,0)
v1: Removing PWL point (0.029902,24)
v1: Removing PWL point (0.02995,0)
v1: Removing PWL point (0.030002,24)
v1: Removing PWL point (0.030053,0)
v1: Removing PWL point (0.030102,24)
v1: Removing PWL point (0.030156,0)
v1: Removing PWL point (0.030202,24)
v1: Removing PWL point (0.03026,0)
v1: Removing PWL point (0.030302,24)
v1: Removing PWL point (0.030363,0)
v1: Removing PWL point (0.030402,24)
v1: Removing PWL point (0.030466,0)
v1: Removing PWL point (0.030502,24)
v1: Removing PWL point (0.030569,0)
v1: Removing PWL point (0.030602,24)
v1: Removing PWL point (0.030672,0)
v1: Removing PWL point (0.030702,24)
v1: Removing PWL point (0.030775,0)
v1: Removing PWL point (0.030802,24)
v1: Removing PWL point (0.030878,0)
v1: Removing PWL point (0.030902,24)
v1: Removing PWL point (0.03098,0)
v1: Removing PWL point (0.031002,24)
v1: Removing PWL point (0.031083,0)
v1: Removing PWL point (0.031102,24)
v1: Removing PWL point (0.031185,0)
v1: Removing PWL point (0.031202,24)
v1: Removing PWL point (0.031288,0)
v1: Removing PWL point (0.031302,24)
v1: Removing PWL point (0.03139,0)
v1: Removing PWL point (0.031402,24)
v1: Removing PWL point (0.031492,0)
v1: Removing PWL point (0.031502,24)
v1: Removing PWL point (0.031594,0)
v1: Removing PWL point (0.031602,24)
v1: Removing PWL point (0.031695,0)
v1: Removing PWL point (0.031702,24)
v1: Removing PWL point (0.031797,0)
v1: Removing PWL point (0.031801,24)
v1: Removing PWL point (0.031898,0)
v1: Removing PWL point (0.031902,24)
v1: Removing PWL point (0.031999,0)
v1: Removing PWL point (0.032002,24)
v1: Removing PWL point (0.032102,24)
v1: Removing PWL point (0.032202,24)
v1: Removing PWL point (0.032302,24)
v1: Removing PWL point (0.032402,24)
v1: Removing PWL point (0.032602,24)
v1: Removing PWL point (0.032702,24)
v1: Removing PWL point (0.032802,24)
v1: Removing PWL point (0.032902,24)
v1: Removing PWL point (0.032999,0)
v1: Removing PWL point (0.033002,24)
v1: Removing PWL point (0.033098,0)
v1: Removing PWL point (0.033102,24)
v1: Removing PWL point (0.033197,0)
v1: Removing PWL point (0.033202,24)
v1: Removing PWL point (0.033295,0)
v1: Removing PWL point (0.033302,24)
v1: Removing PWL point (0.033394,0)
v1: Removing PWL point (0.033402,24)
v1: Removing PWL point (0.033492,0)
v1: Removing PWL point (0.033502,24)
v1: Removing PWL point (0.03359,0)
v1: Removing PWL point (0.033602,24)
v1: Removing PWL point (0.033688,0)
v1: Removing PWL point (0.033702,24)
v1: Removing PWL point (0.033786,0)
v1: Removing PWL point (0.033802,24)
v1: Removing PWL point (0.033884,0)
v1: Removing PWL point (0.033902,24)
v1: Removing PWL point (0.033981,0)
v1: Removing PWL point (0.034002,24)
v1: Removing PWL point (0.034079,0)
v1: Removing PWL point (0.034102,24)
v1: Removing PWL point (0.034176,0)
v1: Removing PWL point (0.034202,24)
v1: Removing PWL point (0.034274,0)
v1: Removing PWL point (0.034302,24)
v1: Removing PWL point (0.034371,0)
v1: Removing PWL point (0.034402,24)
v1: Removing PWL point (0.034468,0)
v1: Removing PWL point (0.034502,24)
v1: Removing PWL point (0.034565,0)
v1: Removing PWL point (0.034602,24)
v1: Removing PWL point (0.034662,0)
v1: Removing PWL point (0.034701,24)
v1: Removing PWL point (0.034759,0)
v1: Removing PWL point (0.034802,24)
v1: Removing PWL point (0.034856,0)
v1: Removing PWL point (0.034902,24)
v1: Removing PWL point (0.034953,0)
v1: Removing PWL point (0.035002,24)
v1: Removing PWL point (0.03505,0)
v1: Removing PWL point (0.035102,24)
v1: Removing PWL point (0.035147,0)
v1: Removing PWL point (0.035202,24)
v1: Removing PWL point (0.035244,0)
v1: Removing PWL point (0.035302,24)
v1: Removing PWL point (0.035341,0)
v1: Removing PWL point (0.035402,24)
v1: Removing PWL point (0.035438,0)
v1: Removing PWL point (0.035502,24)
v1: Removing PWL point (0.035535,0)
v1: Removing PWL point (0.035602,24)
v1: Removing PWL point (0.035632,0)
v1: Removing PWL point (0.035702,24)
v1: Removing PWL point (0.035729,0)
v1: Removing PWL point (0.035802,24)
v1: Removing PWL point (0.035827,0)
v1: Removing PWL point (0.035902,24)
v1: Removing PWL point (0.035924,0)
v1: Removing PWL point (0.036002,24)
v1: Removing PWL point (0.036022,0)
v1: Removing PWL point (0.036102,24)
v1: Removing PWL point (0.036119,0)
v1: Removing PWL point (0.036202,24)
v1: Removing PWL point (0.036217,0)
v1: Removing PWL point (0.036302,24)
v1: Removing PWL point (0.036315,0)
v1: Removing PWL point (0.036401,24)
v1: Removing PWL point (0.036413,0)
v1: Removing PWL point (0.036502,24)
v1: Removing PWL point (0.036511,0)
v1: Removing PWL point (0.036602,24)
v1: Removing PWL point (0.036609,0)
v1: Removing PWL point (0.036702,24)
v1: Removing PWL point (0.036708,0)
v1: Removing PWL point (0.036802,24)
v1: Removing PWL point (0.036806,0)
v1: Removing PWL point (0.036902,24)
v1: Removing PWL point (0.036905,0)
v1: Removing PWL point (0.037004,0)
v1: Removing PWL point (0.037103,0)
v1: Removing PWL point (0.037903,0)
v1: Removing PWL point (0.038004,0)
v1: Removing PWL point (0.038102,24)
v1: Removing PWL point (0.038105,0)
v1: Removing PWL point (0.038202,24)
v1: Removing PWL point (0.038206,0)
v1: Removing PWL point (0.038302,24)
v1: Removing PWL point (0.038308,0)
v1: Removing PWL point (0.038402,24)
v1: Removing PWL point (0.038409,0)
v1: Removing PWL point (0.038502,24)
v1: Removing PWL point (0.038511,0)
v1: Removing PWL point (0.038602,24)
v1: Removing PWL point (0.038613,0)
v1: Removing PWL point (0.038702,24)
v1: Removing PWL point (0.038715,0)
v1: Removing PWL point (0.038802,24)
v1: Removing PWL point (0.038818,0)
v1: Removing PWL point (0.038902,24)
v1: Removing PWL point (0.03892,0)
v1: Removing PWL point (0.039002,24)
v1: Removing PWL point (0.039023,0)
v1: Removing PWL point (0.039102,24)
v1: Removing PWL point (0.039125,0)
v1: Removing PWL point (0.039202,24)
v1: Removing PWL point (0.039228,0)
v1: Removing PWL point (0.039302,24)
v1: Removing PWL point (0.039331,0)
v1: Removing PWL point (0.039402,24)
v1: Removing PWL point (0.039434,0)
v1: Removing PWL point (0.039502,24)
v1: Removing PWL point (0.039537,0)
v1: Removing PWL point (0.039602,24)
v1: Removing PWL point (0.03964,0)
v1: Removing PWL point (0.039702,24)
v1: Removing PWL point (0.039743,0)
v1: Removing PWL point (0.039802,24)
v1: Removing PWL point (0.039847,0)
v1: Removing PWL point (0.039902,24)
v1: Removing PWL point (0.03995,0)
v1: Removing PWL point (0.040002,24)
v1: Removing PWL point (0.040053,0)
v1: Removing PWL point (0.040102,24)
v1: Removing PWL point (0.040156,0)
v1: Removing PWL point (0.040202,24)
v1: Removing PWL point (0.04026,0)
v1: Removing PWL point (0.040302,24)
v1: Removing PWL point (0.040363,0)
v1: Removing PWL point (0.040402,24)
v1: Removing PWL point (0.040466,0)
v1: Removing PWL point (0.040502,24)
v1: Removing PWL point (0.040569,0)
v1: Removing PWL point (0.040602,24)
v1: Removing PWL point (0.040672,0)
v1: Removing PWL point (0.040702,24)
v1: Removing PWL point (0.040775,0)
v1: Removing PWL point (0.040802,24)
v1: Removing PWL point (0.040878,0)
v1: Removing PWL point (0.040902,24)
v1: Removing PWL point (0.04098,0)
v1: Removing PWL point (0.041002,24)
v1: Removing PWL point (0.041083,0)
v1: Removing PWL point (0.041102,24)
v1: Removing PWL point (0.041185,0)
v1: Removing PWL point (0.041202,24)
v1: Removing PWL point (0.041288,0)
v1: Removing PWL point (0.041302,24)
v1: Removing PWL point (0.04139,0)
v1: Removing PWL point (0.041402,24)
v1: Removing PWL point (0.041492,0)
v1: Removing PWL point (0.041502,24)
v1: Removing PWL point (0.041594,0)
v1: Removing PWL point (0.041602,24)
v1: Removing PWL point (0.041695,0)
v1: Removing PWL point (0.041702,24)
v1: Removing PWL point (0.041797,0)
v1: Removing PWL point (0.041802,24)
v1: Removing PWL point (0.041898,0)
v1: Removing PWL point (0.041902,24)
v1: Removing PWL point (0.041999,0)
v1: Removing PWL point (0.042002,24)
v1: Removing PWL point (0.042102,24)
v1: Removing PWL point (0.042202,24)
v1: Removing PWL point (0.042302,24)
v1: Removing PWL point (0.042402,24)
v1: Removing PWL point (0.042602,24)
v1: Removing PWL point (0.042702,24)
v1: Removing PWL point (0.042802,24)
v1: Removing PWL point (0.042902,24)
v1: Removing PWL point (0.042999,0)
v1: Removing PWL point (0.043002,24)
v1: Removing PWL point (0.043098,0)
v1: Removing PWL point (0.043102,24)
v1: Removing PWL point (0.043197,0)
v1: Removing PWL point (0.043202,24)
v1: Removing PWL point (0.043295,0)
v1: Removing PWL point (0.043302,24)
v1: Removing PWL point (0.043394,0)
v1: Removing PWL point (0.043402,24)
v1: Removing PWL point (0.043492,0)
v1: Removing PWL point (0.043502,24)
v1: Removing PWL point (0.04359,0)
v1: Removing PWL point (0.043602,24)
v1: Removing PWL point (0.043688,0)
v1: Removing PWL point (0.043702,24)
v1: Removing PWL point (0.043786,0)
v1: Removing PWL point (0.043802,24)
v1: Removing PWL point (0.043884,0)
v1: Removing PWL point (0.043902,24)
v1: Removing PWL point (0.043981,0)
v1: Removing PWL point (0.044002,24)
v1: Removing PWL point (0.044079,0)
v1: Removing PWL point (0.044102,24)
v1: Removing PWL point (0.044176,0)
v1: Removing PWL point (0.044202,24)
v1: Removing PWL point (0.044274,0)
v1: Removing PWL point (0.044302,24)
v1: Removing PWL point (0.044371,0)
v1: Removing PWL point (0.044402,24)
v1: Removing PWL point (0.044468,0)
v1: Removing PWL point (0.044502,24)
v1: Removing PWL point (0.044565,0)
v1: Removing PWL point (0.044602,24)
v1: Removing PWL point (0.044662,0)
v1: Removing PWL point (0.044702,24)
v1: Removing PWL point (0.044759,0)
v1: Removing PWL point (0.044802,24)
v1: Removing PWL point (0.044856,0)
v1: Removing PWL point (0.044902,24)
v1: Removing PWL point (0.044953,0)
v1: Removing PWL point (0.045002,24)
v1: Removing PWL point (0.04505,0)
v1: Removing PWL point (0.045102,24)
v1: Removing PWL point (0.045147,0)
v1: Removing PWL point (0.045202,24)
v1: Removing PWL point (0.045244,0)
v1: Removing PWL point (0.045302,24)
v1: Removing PWL point (0.045341,0)
v1: Removing PWL point (0.045402,24)
v1: Removing PWL point (0.045438,0)
v1: Removing PWL point (0.045502,24)
v1: Removing PWL point (0.045535,0)
v1: Removing PWL point (0.045602,24)
v1: Removing PWL point (0.045632,0)
v1: Removing PWL point (0.045702,24)
v1: Removing PWL point (0.045729,0)
v1: Removing PWL point (0.045802,24)
v1: Removing PWL point (0.045827,0)
v1: Removing PWL point (0.045902,24)
v1: Removing PWL point (0.045924,0)
v1: Removing PWL point (0.046002,24)
v1: Removing PWL point (0.046022,0)
v1: Removing PWL point (0.046102,24)
v1: Removing PWL point (0.046119,0)
v1: Removing PWL point (0.046202,24)
v1: Removing PWL point (0.046217,0)
v1: Removing PWL point (0.046302,24)
v1: Removing PWL point (0.046315,0)
v1: Removing PWL point (0.046402,24)
v1: Removing PWL point (0.046413,0)
v1: Removing PWL point (0.046502,24)
v1: Removing PWL point (0.046511,0)
v1: Removing PWL point (0.046602,24)
v1: Removing PWL point (0.046609,0)
v1: Removing PWL point (0.046702,24)
v1: Removing PWL point (0.046708,0)
v1: Removing PWL point (0.046802,24)
v1: Removing PWL point (0.046806,0)
v1: Removing PWL point (0.046902,24)
v1: Removing PWL point (0.046905,0)
v1: Removing PWL point (0.047004,0)
v1: Removing PWL point (0.047103,0)
v1: Removing PWL point (0.047903,0)
v1: Removing PWL point (0.048004,0)
v1: Removing PWL point (0.048102,24)
v1: Removing PWL point (0.048105,0)
v1: Removing PWL point (0.048202,24)
v1: Removing PWL point (0.048206,0)
v1: Removing PWL point (0.048302,24)
v1: Removing PWL point (0.048308,0)
v1: Removing PWL point (0.048402,24)
v1: Removing PWL point (0.048409,0)
v1: Removing PWL point (0.048502,24)
v1: Removing PWL point (0.048511,0)
v1: Removing PWL point (0.048602,24)
v1: Removing PWL point (0.048613,0)
v1: Removing PWL point (0.048702,24)
v1: Removing PWL point (0.048715,0)
v1: Removing PWL point (0.048802,24)
v1: Removing PWL point (0.048818,0)
v1: Removing PWL point (0.048902,24)
v1: Removing PWL point (0.04892,0)
v1: Removing PWL point (0.049002,24)
v1: Removing PWL point (0.049023,0)
v1: Removing PWL point (0.049102,24)
v1: Removing PWL point (0.049125,0)
v1: Removing PWL point (0.049202,24)
v1: Removing PWL point (0.049228,0)
v1: Removing PWL point (0.049302,24)
v1: Removing PWL point (0.049331,0)
v1: Removing PWL point (0.049402,24)
v1: Removing PWL point (0.049434,0)
v1: Removing PWL point (0.049502,24)
v1: Removing PWL point (0.049537,0)
v1: Removing PWL point (0.049602,24)
v1: Removing PWL point (0.04964,0)
v1: Removing PWL point (0.049702,24)
v1: Removing PWL point (0.049743,0)
v1: Removing PWL point (0.049802,24)
v1: Removing PWL point (0.049847,0)
v1: Removing PWL point (0.049902,24)
v1: Removing PWL point (0.04995,0)
v1: Removing PWL point (0.050002,24)
v1: Removing PWL point (0.050053,0)
v1: Removing PWL point (0.050102,24)
v1: Removing PWL point (0.050156,0)
v1: Removing PWL point (0.050202,24)
v1: Removing PWL point (0.05026,0)
v1: Removing PWL point (0.050302,24)
v1: Removing PWL point (0.050363,0)
v1: Removing PWL point (0.050402,24)
v1: Removing PWL point (0.050466,0)
v1: Removing PWL point (0.050502,24)
v1: Removing PWL point (0.050569,0)
v1: Removing PWL point (0.050602,24)
v1: Removing PWL point (0.050672,0)
v1: Removing PWL point (0.050702,24)
v1: Removing PWL point (0.050775,0)
v1: Removing PWL point (0.050802,24)
v1: Removing PWL point (0.050878,0)
v1: Removing PWL point (0.050902,24)
v1: Removing PWL point (0.05098,0)
v1: Removing PWL point (0.051002,24)
v1: Removing PWL point (0.051083,0)
v1: Removing PWL point (0.051102,24)
v1: Removing PWL point (0.051185,0)
v1: Removing PWL point (0.051202,24)
v1: Removing PWL point (0.051288,0)
v1: Removing PWL point (0.051302,24)
v1: Removing PWL point (0.05139,0)
v1: Removing PWL point (0.051402,24)
v1: Removing PWL point (0.051492,0)
v1: Removing PWL point (0.051502,24)
v1: Removing PWL point (0.051594,0)
v1: Removing PWL point (0.051602,24)
v1: Removing PWL point (0.051695,0)
v1: Removing PWL point (0.051702,24)
v1: Removing PWL point (0.051797,0)
v1: Removing PWL point (0.051802,24)
v1: Removing PWL point (0.051898,0)
v1: Removing PWL point (0.051902,24)
v1: Removing PWL point (0.051999,0)
v1: Removing PWL point (0.052002,24)
v1: Removing PWL point (0.052102,24)
v1: Removing PWL point (0.052202,24)
v1: Removing PWL point (0.052302,24)
v1: Removing PWL point (0.052402,24)
v1: Removing PWL point (0.052602,24)
v1: Removing PWL point (0.052702,24)
v1: Removing PWL point (0.052802,24)
v1: Removing PWL point (0.052902,24)
v1: Removing PWL point (0.052999,0)
v1: Removing PWL point (0.053002,24)
v1: Removing PWL point (0.053098,0)
v1: Removing PWL point (0.053102,24)
v1: Removing PWL point (0.053197,0)
v1: Removing PWL point (0.053202,24)
v1: Removing PWL point (0.053295,0)
v1: Removing PWL point (0.053302,24)
v1: Removing PWL point (0.053394,0)
v1: Removing PWL point (0.053402,24)
v1: Removing PWL point (0.053492,0)
v1: Removing PWL point (0.053502,24)
v1: Removing PWL point (0.05359,0)
v1: Removing PWL point (0.053602,24)
v1: Removing PWL point (0.053688,0)
v1: Removing PWL point (0.053702,24)
v1: Removing PWL point (0.053786,0)
v1: Removing PWL point (0.053802,24)
v1: Removing PWL point (0.053884,0)
v1: Removing PWL point (0.053902,24)
v1: Removing PWL point (0.053981,0)
v1: Removing PWL point (0.054002,24)
v1: Removing PWL point (0.054079,0)
v1: Removing PWL point (0.054102,24)
v1: Removing PWL point (0.054176,0)
v1: Removing PWL point (0.054202,24)
v1: Removing PWL point (0.054274,0)
v1: Removing PWL point (0.054302,24)
v1: Removing PWL point (0.054371,0)
v1: Removing PWL point (0.054402,24)
v1: Removing PWL point (0.054468,0)
v1: Removing PWL point (0.054502,24)
v1: Removing PWL point (0.054565,0)
v1: Removing PWL point (0.054602,24)
v1: Removing PWL point (0.054662,0)
v1: Removing PWL point (0.054702,24)
v1: Removing PWL point (0.054759,0)
v1: Removing PWL point (0.054802,24)
v1: Removing PWL point (0.054856,0)
v1: Removing PWL point (0.054902,24)
v1: Removing PWL point (0.054953,0)
v1: Removing PWL point (0.055002,24)
v1: Removing PWL point (0.05505,0)
v1: Removing PWL point (0.055102,24)
v1: Removing PWL point (0.055147,0)
v1: Removing PWL point (0.055202,24)
v1: Removing PWL point (0.055244,0)
v1: Removing PWL point (0.055302,24)
v1: Removing PWL point (0.055341,0)
v1: Removing PWL point (0.055402,24)
v1: Removing PWL point (0.055438,0)
v1: Removing PWL point (0.055502,24)
v1: Removing PWL point (0.055535,0)
v1: Removing PWL point (0.055602,24)
v1: Removing PWL point (0.055632,0)
v1: Removing PWL point (0.055702,24)
v1: Removing PWL point (0.055729,0)
v1: Removing PWL point (0.055802,24)
v1: Removing PWL point (0.055827,0)
v1: Removing PWL point (0.055902,24)
v1: Removing PWL point (0.055924,0)
v1: Removing PWL point (0.056002,24)
v1: Removing PWL point (0.056022,0)
v1: Removing PWL point (0.056102,24)
v1: Removing PWL point (0.056119,0)
v1: Removing PWL point (0.056202,24)
v1: Removing PWL point (0.056217,0)
v1: Removing PWL point (0.056302,24)
v1: Removing PWL point (0.056315,0)
v1: Removing PWL point (0.056402,24)
v1: Removing PWL point (0.056413,0)
v1: Removing PWL point (0.056502,24)
v1: Removing PWL point (0.056511,0)
v1: Removing PWL point (0.056602,24)
v1: Removing PWL point (0.056609,0)
v1: Removing PWL point (0.056702,24)
v1: Removing PWL point (0.056708,0)
v1: Removing PWL point (0.056802,24)
v1: Removing PWL point (0.056806,0)
v1: Removing PWL point (0.056902,24)
v1: Removing PWL point (0.056905,0)
v1: Removing PWL point (0.057004,0)
v1: Removing PWL point (0.057103,0)
v1: Removing PWL point (0.057903,0)
v1: Removing PWL point (0.058004,0)
v1: Removing PWL point (0.058102,24)
v1: Removing PWL point (0.058105,0)
v1: Removing PWL point (0.058202,24)
v1: Removing PWL point (0.058206,0)
v1: Removing PWL point (0.058302,24)
v1: Removing PWL point (0.058308,0)
v1: Removing PWL point (0.058402,24)
v1: Removing PWL point (0.058409,0)
v1: Removing PWL point (0.058502,24)
v1: Removing PWL point (0.058511,0)
v1: Removing PWL point (0.058602,24)
v1: Removing PWL point (0.058613,0)
v1: Removing PWL point (0.058702,24)
v1: Removing PWL point (0.058715,0)
v1: Removing PWL point (0.058802,24)
v1: Removing PWL point (0.058818,0)
v1: Removing PWL point (0.058902,24)
v1: Removing PWL point (0.05892,0)
v1: Removing PWL point (0.059002,24)
v1: Removing PWL point (0.059023,0)
v1: Removing PWL point (0.059102,24)
v1: Removing PWL point (0.059125,0)
v1: Removing PWL point (0.059202,24)
v1: Removing PWL point (0.059228,0)
v1: Removing PWL point (0.059302,24)
v1: Removing PWL point (0.059331,0)
v1: Removing PWL point (0.059402,24)
v1: Removing PWL point (0.059434,0)
v1: Removing PWL point (0.059502,24)
v1: Removing PWL point (0.059537,0)
v1: Removing PWL point (0.059602,24)
v1: Removing PWL point (0.05964,0)
v1: Removing PWL point (0.059702,24)
v1: Removing PWL point (0.059743,0)
v1: Removing PWL point (0.059802,24)
v1: Removing PWL point (0.059847,0)
v1: Removing PWL point (0.059902,24)
v1: Removing PWL point (0.05995,0)
v1: Removing PWL point (0.060002,24)
v1: Removing PWL point (0.060053,0)
v1: Removing PWL point (0.060102,24)
v1: Removing PWL point (0.060156,0)
v1: Removing PWL point (0.060202,24)
v1: Removing PWL point (0.06026,0)
v1: Removing PWL point (0.060302,24)
v1: Removing PWL point (0.060363,0)
v1: Removing PWL point (0.060402,24)
v1: Removing PWL point (0.060466,0)
v1: Removing PWL point (0.060502,24)
v1: Removing PWL point (0.060569,0)
v1: Removing PWL point (0.060602,24)
v1: Removing PWL point (0.060672,0)
v1: Removing PWL point (0.060702,24)
v1: Removing PWL point (0.060775,0)
v1: Removing PWL point (0.060802,24)
v1: Removing PWL point (0.060878,0)
v1: Removing PWL point (0.060902,24)
v1: Removing PWL point (0.06098,0)
v1: Removing PWL point (0.061002,24)
v1: Removing PWL point (0.061083,0)
v1: Removing PWL point (0.061102,24)
v1: Removing PWL point (0.061185,0)
v1: Removing PWL point (0.061202,24)
v1: Removing PWL point (0.061288,0)
v1: Removing PWL point (0.061302,24)
v1: Removing PWL point (0.06139,0)
v1: Removing PWL point (0.061402,24)
v1: Removing PWL point (0.061492,0)
v1: Removing PWL point (0.061502,24)
v1: Removing PWL point (0.061594,0)
v1: Removing PWL point (0.061602,24)
v1: Removing PWL point (0.061695,0)
v1: Removing PWL point (0.061702,24)
v1: Removing PWL point (0.061797,0)
v1: Removing PWL point (0.061802,24)
v1: Removing PWL point (0.061898,0)
v1: Removing PWL point (0.061902,24)
v1: Removing PWL point (0.061999,0)
v1: Removing PWL point (0.062002,24)
v1: Removing PWL point (0.062102,24)
v1: Removing PWL point (0.062202,24)
v1: Removing PWL point (0.062302,24)
v1: Removing PWL point (0.062402,24)
v1: Removing PWL point (0.062602,24)
v1: Removing PWL point (0.062702,24)
v1: Removing PWL point (0.062802,24)
v1: Removing PWL point (0.062902,24)
v1: Removing PWL point (0.062999,0)
v1: Removing PWL point (0.063002,24)
v1: Removing PWL point (0.063098,0)
v1: Removing PWL point (0.063101,24)
v1: Removing PWL point (0.063197,0)
v1: Removing PWL point (0.063202,24)
v1: Removing PWL point (0.063295,0)
v1: Removing PWL point (0.063302,24)
v1: Removing PWL point (0.063394,0)
v1: Removing PWL point (0.063402,24)
v1: Removing PWL point (0.063492,0)
v1: Removing PWL point (0.063502,24)
v1: Removing PWL point (0.06359,0)
v1: Removing PWL point (0.063601,24)
v1: Removing PWL point (0.063688,0)
v1: Removing PWL point (0.063702,24)
v1: Removing PWL point (0.063786,0)
v1: Removing PWL point (0.063802,24)
v1: Removing PWL point (0.063884,0)
v1: Removing PWL point (0.063902,24)
v1: Removing PWL point (0.063981,0)
v1: Removing PWL point (0.064002,24)
v1: Removing PWL point (0.064079,0)
v1: Removing PWL point (0.064102,24)
v1: Removing PWL point (0.064176,0)
v1: Removing PWL point (0.064202,24)
v1: Removing PWL point (0.064274,0)
v1: Removing PWL point (0.064302,24)
v1: Removing PWL point (0.064371,0)
v1: Removing PWL point (0.064402,24)
v1: Removing PWL point (0.064468,0)
v1: Removing PWL point (0.064502,24)
v1: Removing PWL point (0.064565,0)
v1: Removing PWL point (0.064602,24)
v1: Removing PWL point (0.064662,0)
v1: Removing PWL point (0.064702,24)
v1: Removing PWL point (0.064759,0)
v1: Removing PWL point (0.064802,24)
v1: Removing PWL point (0.064856,0)
v1: Removing PWL point (0.064902,24)
v1: Removing PWL point (0.064953,0)
v1: Removing PWL point (0.065002,24)
v1: Removing PWL point (0.06505,0)
v1: Removing PWL point (0.065102,24)
v1: Removing PWL point (0.065147,0)
v1: Removing PWL point (0.065202,24)
v1: Removing PWL point (0.065244,0)
v1: Removing PWL point (0.065302,24)
v1: Removing PWL point (0.065341,0)
v1: Removing PWL point (0.065402,24)
v1: Removing PWL point (0.065438,0)
v1: Removing PWL point (0.065502,24)
v1: Removing PWL point (0.065535,0)
v1: Removing PWL point (0.065602,24)
v1: Removing PWL point (0.065632,0)
v1: Removing PWL point (0.065702,24)
v1: Removing PWL point (0.065729,0)
v1: Removing PWL point (0.065802,24)
v1: Removing PWL point (0.065827,0)
v1: Removing PWL point (0.065902,24)
v1: Removing PWL point (0.065924,0)
v1: Removing PWL point (0.066002,24)
v1: Removing PWL point (0.066022,0)
v1: Removing PWL point (0.066102,24)
v1: Removing PWL point (0.066119,0)
v1: Removing PWL point (0.066202,24)
v1: Removing PWL point (0.066217,0)
v1: Removing PWL point (0.066302,24)
v1: Removing PWL point (0.066315,0)
v1: Removing PWL point (0.066402,24)
v1: Removing PWL point (0.066413,0)
v1: Removing PWL point (0.066501,24)
v1: Removing PWL point (0.066511,0)
v1: Removing PWL point (0.066602,24)
v1: Removing PWL point (0.066609,0)
v1: Removing PWL point (0.066702,24)
v1: Removing PWL point (0.066708,0)
v1: Removing PWL point (0.066802,24)
v1: Removing PWL point (0.066806,0)
v1: Removing PWL point (0.066902,24)
v1: Removing PWL point (0.066905,0)
v1: Removing PWL point (0.067004,0)
v1: Removing PWL point (0.067103,0)
v1: Removing PWL point (0.067903,0)
v1: Removing PWL point (0.068004,0)
v1: Removing PWL point (0.068102,24)
v1: Removing PWL point (0.068105,0)
v1: Removing PWL point (0.068202,24)
v1: Removing PWL point (0.068206,0)
v1: Removing PWL point (0.068302,24)
v1: Removing PWL point (0.068308,0)
v1: Removing PWL point (0.068402,24)
v1: Removing PWL point (0.068409,0)
v1: Removing PWL point (0.068502,24)
v1: Removing PWL point (0.068511,0)
v1: Removing PWL point (0.068602,24)
v1: Removing PWL point (0.068613,0)
v1: Removing PWL point (0.068702,24)
v1: Removing PWL point (0.068715,0)
v1: Removing PWL point (0.068802,24)
v1: Removing PWL point (0.068818,0)
v1: Removing PWL point (0.068902,24)
v1: Removing PWL point (0.06892,0)
v1: Removing PWL point (0.069002,24)
v1: Removing PWL point (0.069023,0)
v1: Removing PWL point (0.069102,24)
v1: Removing PWL point (0.069125,0)
v1: Removing PWL point (0.069202,24)
v1: Removing PWL point (0.069228,0)
v1: Removing PWL point (0.069302,24)
v1: Removing PWL point (0.069331,0)
v1: Removing PWL point (0.069401,24)
v1: Removing PWL point (0.069434,0)
v1: Removing PWL point (0.069502,24)
v1: Removing PWL point (0.069537,0)
v1: Removing PWL point (0.069602,24)
v1: Removing PWL point (0.06964,0)
v1: Removing PWL point (0.069702,24)
v1: Removing PWL point (0.069743,0)
v1: Removing PWL point (0.069802,24)
v1: Removing PWL point (0.069847,0)
v1: Removing PWL point (0.069902,24)
v1: Removing PWL point (0.06995,0)
v1: Removing PWL point (0.070002,24)
v1: Removing PWL point (0.070053,0)
v1: Removing PWL point (0.070102,24)
v1: Removing PWL point (0.070156,0)
v1: Removing PWL point (0.070202,24)
v1: Removing PWL point (0.07026,0)
v1: Removing PWL point (0.070302,24)
v1: Removing PWL point (0.070363,0)
v1: Removing PWL point (0.070402,24)
v1: Removing PWL point (0.070466,0)
v1: Removing PWL point (0.070502,24)
v1: Removing PWL point (0.070569,0)
v1: Removing PWL point (0.070602,24)
v1: Removing PWL point (0.070672,0)
v1: Removing PWL point (0.070702,24)
v1: Removing PWL point (0.070775,0)
v1: Removing PWL point (0.070802,24)
v1: Removing PWL point (0.070878,0)
v1: Removing PWL point (0.070902,24)
v1: Removing PWL point (0.07098,0)
v1: Removing PWL point (0.071002,24)
v1: Removing PWL point (0.071083,0)
v1: Removing PWL point (0.071102,24)
v1: Removing PWL point (0.071185,0)
v1: Removing PWL point (0.071202,24)
v1: Removing PWL point (0.071288,0)
v1: Removing PWL point (0.071302,24)
v1: Removing PWL point (0.07139,0)
v1: Removing PWL point (0.071402,24)
v1: Removing PWL point (0.071492,0)
v1: Removing PWL point (0.071502,24)
v1: Removing PWL point (0.071594,0)
v1: Removing PWL point (0.071602,24)
v1: Removing PWL point (0.071695,0)
v1: Removing PWL point (0.071702,24)
v1: Removing PWL point (0.071797,0)
v1: Removing PWL point (0.071802,24)
v1: Removing PWL point (0.071898,0)
v1: Removing PWL point (0.071902,24)
v1: Removing PWL point (0.071999,0)
v1: Removing PWL point (0.072002,24)
v1: Removing PWL point (0.072102,24)
v1: Removing PWL point (0.072202,24)
v1: Removing PWL point (0.072302,24)
v1: Removing PWL point (0.072402,24)
v1: Removing PWL point (0.072602,24)
v1: Removing PWL point (0.072702,24)
v1: Removing PWL point (0.072902,24)
v1: Removing PWL point (0.072999,0)
v1: Removing PWL point (0.073002,24)
v1: Removing PWL point (0.073098,0)
v1: Removing PWL point (0.073102,24)
v1: Removing PWL point (0.073197,0)
v1: Removing PWL point (0.073202,24)
v1: Removing PWL point (0.073295,0)
v1: Removing PWL point (0.073302,24)
v1: Removing PWL point (0.073394,0)
v1: Removing PWL point (0.073402,24)
v1: Removing PWL point (0.073492,0)
v1: Removing PWL point (0.073502,24)
v1: Removing PWL point (0.07359,0)
v1: Removing PWL point (0.073602,24)
v1: Removing PWL point (0.073688,0)
v1: Removing PWL point (0.073702,24)
v1: Removing PWL point (0.073786,0)
v1: Removing PWL point (0.073802,24)
v1: Removing PWL point (0.073884,0)
v1: Removing PWL point (0.073902,24)
v1: Removing PWL point (0.073981,0)
v1: Removing PWL point (0.074002,24)
v1: Removing PWL point (0.074079,0)
v1: Removing PWL point (0.074102,24)
v1: Removing PWL point (0.074176,0)
v1: Removing PWL point (0.074202,24)
v1: Removing PWL point (0.074274,0)
v1: Removing PWL point (0.074302,24)
v1: Removing PWL point (0.074371,0)
v1: Removing PWL point (0.074402,24)
v1: Removing PWL point (0.074468,0)
v1: Removing PWL point (0.074502,24)
v1: Removing PWL point (0.074565,0)
v1: Removing PWL point (0.074602,24)
v1: Removing PWL point (0.074662,0)
v1: Removing PWL point (0.074702,24)
v1: Removing PWL point (0.074759,0)
v1: Removing PWL point (0.074802,24)
v1: Removing PWL point (0.074856,0)
v1: Removing PWL point (0.074902,24)
v1: Removing PWL point (0.074953,0)
v1: Removing PWL point (0.075002,24)
v1: Removing PWL point (0.07505,0)
v1: Removing PWL point (0.075102,24)
v1: Removing PWL point (0.075147,0)
v1: Removing PWL point (0.075202,24)
v1: Removing PWL point (0.075244,0)
v1: Removing PWL point (0.075302,24)
v1: Removing PWL point (0.075341,0)
v1: Removing PWL point (0.075402,24)
v1: Removing PWL point (0.075438,0)
v1: Removing PWL point (0.075502,24)
v1: Removing PWL point (0.075535,0)
v1: Removing PWL point (0.075602,24)
v1: Removing PWL point (0.075632,0)
v1: Removing PWL point (0.075702,24)
v1: Removing PWL point (0.075729,0)
v1: Removing PWL point (0.075802,24)
v1: Removing PWL point (0.075827,0)
v1: Removing PWL point (0.075902,24)
v1: Removing PWL point (0.075924,0)
v1: Removing PWL point (0.076002,24)
v1: Removing PWL point (0.076022,0)
v1: Removing PWL point (0.076102,24)
v1: Removing PWL point (0.076119,0)
v1: Removing PWL point (0.076202,24)
v1: Removing PWL point (0.076217,0)
v1: Removing PWL point (0.076302,24)
v1: Removing PWL point (0.076315,0)
v1: Removing PWL point (0.076402,24)
v1: Removing PWL point (0.076413,0)
v1: Removing PWL point (0.076502,24)
v1: Removing PWL point (0.076511,0)
v1: Removing PWL point (0.076602,24)
v1: Removing PWL point (0.076609,0)
v1: Removing PWL point (0.076702,24)
v1: Removing PWL point (0.076708,0)
v1: Removing PWL point (0.076802,24)
v1: Removing PWL point (0.076806,0)
v1: Removing PWL point (0.076902,24)
v1: Removing PWL point (0.076905,0)
v1: Removing PWL point (0.077004,0)
v1: Removing PWL point (0.077103,0)
v1: Removing PWL point (0.077903,0)
v1: Removing PWL point (0.078004,0)
v1: Removing PWL point (0.078102,24)
v1: Removing PWL point (0.078105,0)
v1: Removing PWL point (0.078202,24)
v1: Removing PWL point (0.078206,0)
v1: Removing PWL point (0.078302,24)
v1: Removing PWL point (0.078308,0)
v1: Removing PWL point (0.078402,24)
v1: Removing PWL point (0.078409,0)
v1: Removing PWL point (0.078502,24)
v1: Removing PWL point (0.078511,0)
v1: Removing PWL point (0.078602,24)
v1: Removing PWL point (0.078613,0)
v1: Removing PWL point (0.078702,24)
v1: Removing PWL point (0.078715,0)
v1: Removing PWL point (0.078802,24)
v1: Removing PWL point (0.078818,0)
v1: Removing PWL point (0.078902,24)
v1: Removing PWL point (0.07892,0)
v1: Removing PWL point (0.079002,24)
v1: Removing PWL point (0.079023,0)
v1: Removing PWL point (0.079102,24)
v1: Removing PWL point (0.079125,0)
v1: Removing PWL point (0.079202,24)
v1: Removing PWL point (0.079228,0)
v1: Removing PWL point (0.079302,24)
v1: Removing PWL point (0.079331,0)
v1: Removing PWL point (0.079402,24)
v1: Removing PWL point (0.079434,0)
v1: Removing PWL point (0.079502,24)
v1: Removing PWL point (0.079537,0)
v1: Removing PWL point (0.079602,24)
v1: Removing PWL point (0.07964,0)
v1: Removing PWL point (0.079702,24)
v1: Removing PWL point (0.079743,0)
v1: Removing PWL point (0.079802,24)
v1: Removing PWL point (0.079847,0)
v1: Removing PWL point (0.079902,24)
v1: Removing PWL point (0.07995,0)
v1: Removing PWL point (0.080002,24)
v1: Removing PWL point (0.080053,0)
v1: Removing PWL point (0.080102,24)
v1: Removing PWL point (0.080156,0)
v1: Removing PWL point (0.080202,24)
v1: Removing PWL point (0.08026,0)
v1: Removing PWL point (0.080302,24)
v1: Removing PWL point (0.080363,0)
v1: Removing PWL point (0.080402,24)
v1: Removing PWL point (0.080466,0)
v1: Removing PWL point (0.080502,24)
v1: Removing PWL point (0.080569,0)
v1: Removing PWL point (0.080602,24)
v1: Removing PWL point (0.080672,0)
v1: Removing PWL point (0.080702,24)
v1: Removing PWL point (0.080775,0)
v1: Removing PWL point (0.080802,24)
v1: Removing PWL point (0.080878,0)
v1: Removing PWL point (0.080902,24)
v1: Removing PWL point (0.08098,0)
v1: Removing PWL point (0.081002,24)
v1: Removing PWL point (0.081083,0)
v1: Removing PWL point (0.081102,24)
v1: Removing PWL point (0.081185,0)
v1: Removing PWL point (0.081202,24)
v1: Removing PWL point (0.081288,0)
v1: Removing PWL point (0.081302,24)
v1: Removing PWL point (0.08139,0)
v1: Removing PWL point (0.081402,24)
v1: Removing PWL point (0.081492,0)
v1: Removing PWL point (0.081502,24)
v1: Removing PWL point (0.081594,0)
v1: Removing PWL point (0.081602,24)
v1: Removing PWL point (0.081695,0)
v1: Removing PWL point (0.081702,24)
v1: Removing PWL point (0.081797,0)
v1: Removing PWL point (0.081802,24)
v1: Removing PWL point (0.081898,0)
v1: Removing PWL point (0.081902,24)
v1: Removing PWL point (0.081999,0)
v1: Removing PWL point (0.082002,24)
v1: Removing PWL point (0.082102,24)
v1: Removing PWL point (0.082202,24)
v1: Removing PWL point (0.082302,24)
v1: Removing PWL point (0.082402,24)
v1: Removing PWL point (0.082602,24)
v1: Removing PWL point (0.082702,24)
v1: Removing PWL point (0.082802,24)
v1: Removing PWL point (0.082902,24)
v1: Removing PWL point (0.082999,0)
v1: Removing PWL point (0.083002,24)
v1: Removing PWL point (0.083098,0)
v1: Removing PWL point (0.083102,24)
v1: Removing PWL point (0.083197,0)
v1: Removing PWL point (0.083202,24)
v1: Removing PWL point (0.083295,0)
v1: Removing PWL point (0.083302,24)
v1: Removing PWL point (0.083394,0)
v1: Removing PWL point (0.083402,24)
v1: Removing PWL point (0.083492,0)
v1: Removing PWL point (0.083502,24)
v1: Removing PWL point (0.08359,0)
v1: Removing PWL point (0.083602,24)
v1: Removing PWL point (0.083688,0)
v1: Removing PWL point (0.083702,24)
v1: Removing PWL point (0.083786,0)
v1: Removing PWL point (0.083802,24)
v1: Removing PWL point (0.083884,0)
v1: Removing PWL point (0.083902,24)
v1: Removing PWL point (0.083981,0)
v1: Removing PWL point (0.084002,24)
v1: Removing PWL point (0.084079,0)
v1: Removing PWL point (0.084102,24)
v1: Removing PWL point (0.084176,0)
v1: Removing PWL point (0.084202,24)
v1: Removing PWL point (0.084274,0)
v1: Removing PWL point (0.084302,24)
v1: Removing PWL point (0.084371,0)
v1: Removing PWL point (0.084402,24)
v1: Removing PWL point (0.084468,0)
v1: Removing PWL point (0.084502,24)
v1: Removing PWL point (0.084565,0)
v1: Removing PWL point (0.084602,24)
v1: Removing PWL point (0.084662,0)
v1: Removing PWL point (0.084702,24)
v1: Removing PWL point (0.084759,0)
v1: Removing PWL point (0.084802,24)
v1: Removing PWL point (0.084856,0)
v1: Removing PWL point (0.084902,24)
v1: Removing PWL point (0.084953,0)
v1: Removing PWL point (0.085002,24)
v1: Removing PWL point (0.08505,0)
v1: Removing PWL point (0.085102,24)
v1: Removing PWL point (0.085147,0)
v1: Removing PWL point (0.085202,24)
v1: Removing PWL point (0.085244,0)
v1: Removing PWL point (0.085302,24)
v1: Removing PWL point (0.085341,0)
v1: Removing PWL point (0.085402,24)
v1: Removing PWL point (0.085438,0)
v1: Removing PWL point (0.085502,24)
v1: Removing PWL point (0.085535,0)
v1: Removing PWL point (0.085602,24)
v1: Removing PWL point (0.085632,0)
v1: Removing PWL point (0.085702,24)
v1: Removing PWL point (0.085729,0)
v1: Removing PWL point (0.085802,24)
v1: Removing PWL point (0.085827,0)
v1: Removing PWL point (0.085902,24)
v1: Removing PWL point (0.085924,0)
v1: Removing PWL point (0.086002,24)
v1: Removing PWL point (0.086022,0)
v1: Removing PWL point (0.086102,24)
v1: Removing PWL point (0.086119,0)
v1: Removing PWL point (0.086202,24)
v1: Removing PWL point (0.086217,0)
v1: Removing PWL point (0.086302,24)
v1: Removing PWL point (0.086315,0)
v1: Removing PWL point (0.086402,24)
v1: Removing PWL point (0.086413,0)
v1: Removing PWL point (0.086502,24)
v1: Removing PWL point (0.086511,0)
v1: Removing PWL point (0.086602,24)
v1: Removing PWL point (0.086609,0)
v1: Removing PWL point (0.086702,24)
v1: Removing PWL point (0.086708,0)
v1: Removing PWL point (0.086802,24)
v1: Removing PWL point (0.086806,0)
v1: Removing PWL point (0.086902,24)
v1: Removing PWL point (0.086905,0)
v1: Removing PWL point (0.087004,0)
v1: Removing PWL point (0.087103,0)
v1: Removing PWL point (0.087903,0)
v1: Removing PWL point (0.088004,0)
v1: Removing PWL point (0.088102,24)
v1: Removing PWL point (0.088105,0)
v1: Removing PWL point (0.088202,24)
v1: Removing PWL point (0.088206,0)
v1: Removing PWL point (0.088302,24)
v1: Removing PWL point (0.088308,0)
v1: Removing PWL point (0.088402,24)
v1: Removing PWL point (0.088409,0)
v1: Removing PWL point (0.088502,24)
v1: Removing PWL point (0.088511,0)
v1: Removing PWL point (0.088602,24)
v1: Removing PWL point (0.088613,0)
v1: Removing PWL point (0.088702,24)
v1: Removing PWL point (0.088715,0)
v1: Removing PWL point (0.088802,24)
v1: Removing PWL point (0.088818,0)
v1: Removing PWL point (0.088902,24)
v1: Removing PWL point (0.08892,0)
v1: Removing PWL point (0.089002,24)
v1: Removing PWL point (0.089023,0)
v1: Removing PWL point (0.089102,24)
v1: Removing PWL point (0.089125,0)
v1: Removing PWL point (0.089202,24)
v1: Removing PWL point (0.089228,0)
v1: Removing PWL point (0.089302,24)
v1: Removing PWL point (0.089331,0)
v1: Removing PWL point (0.089402,24)
v1: Removing PWL point (0.089434,0)
v1: Removing PWL point (0.089502,24)
v1: Removing PWL point (0.089537,0)
v1: Removing PWL point (0.089602,24)
v1: Removing PWL point (0.08964,0)
v1: Removing PWL point (0.089702,24)
v1: Removing PWL point (0.089743,0)
v1: Removing PWL point (0.089802,24)
v1: Removing PWL point (0.089847,0)
v1: Removing PWL point (0.089902,24)
v1: Removing PWL point (0.08995,0)
v1: Removing PWL point (0.090002,24)
v1: Removing PWL point (0.090053,0)
v1: Removing PWL point (0.090102,24)
v1: Removing PWL point (0.090156,0)
v1: Removing PWL point (0.090202,24)
v1: Removing PWL point (0.09026,0)
v1: Removing PWL point (0.090302,24)
v1: Removing PWL point (0.090363,0)
v1: Removing PWL point (0.090402,24)
v1: Removing PWL point (0.090466,0)
v1: Removing PWL point (0.090502,24)
v1: Removing PWL point (0.090569,0)
v1: Removing PWL point (0.090602,24)
v1: Removing PWL point (0.090672,0)
v1: Removing PWL point (0.090702,24)
v1: Removing PWL point (0.090775,0)
v1: Removing PWL point (0.090802,24)
v1: Removing PWL point (0.090878,0)
v1: Removing PWL point (0.090902,24)
v1: Removing PWL point (0.09098,0)
v1: Removing PWL point (0.091002,24)
v1: Removing PWL point (0.091083,0)
v1: Removing PWL point (0.091102,24)
v1: Removing PWL point (0.091185,0)
v1: Removing PWL point (0.091202,24)
v1: Removing PWL point (0.091288,0)
v1: Removing PWL point (0.091302,24)
v1: Removing PWL point (0.09139,0)
v1: Removing PWL point (0.091402,24)
v1: Removing PWL point (0.091492,0)
v1: Removing PWL point (0.091502,24)
v1: Removing PWL point (0.091594,0)
v1: Removing PWL point (0.091602,24)
v1: Removing PWL point (0.091695,0)
v1: Removing PWL point (0.091702,24)
v1: Removing PWL point (0.091797,0)
v1: Removing PWL point (0.091802,24)
v1: Removing PWL point (0.091898,0)
v1: Removing PWL point (0.091902,24)
v1: Removing PWL point (0.091999,0)
v1: Removing PWL point (0.092002,24)
v1: Removing PWL point (0.092102,24)
v1: Removing PWL point (0.092202,24)
v1: Removing PWL point (0.092302,24)
v1: Removing PWL point (0.092402,24)
v1: Removing PWL point (0.092602,24)
v1: Removing PWL point (0.092702,24)
v1: Removing PWL point (0.092802,24)
v1: Removing PWL point (0.092902,24)
v1: Removing PWL point (0.092999,0)
v1: Removing PWL point (0.093002,24)
v1: Removing PWL point (0.093098,0)
v1: Removing PWL point (0.093102,24)
v1: Removing PWL point (0.093197,0)
v1: Removing PWL point (0.093202,24)
v1: Removing PWL point (0.093295,0)
v1: Removing PWL point (0.093302,24)
v1: Removing PWL point (0.093394,0)
v1: Removing PWL point (0.093402,24)
v1: Removing PWL point (0.093492,0)
v1: Removing PWL point (0.093502,24)
v1: Removing PWL point (0.09359,0)
v1: Removing PWL point (0.093602,24)
v1: Removing PWL point (0.093688,0)
v1: Removing PWL point (0.093702,24)
v1: Removing PWL point (0.093786,0)
v1: Removing PWL point (0.093802,24)
v1: Removing PWL point (0.093884,0)
v1: Removing PWL point (0.093902,24)
v1: Removing PWL point (0.093981,0)
v1: Removing PWL point (0.094002,24)
v1: Removing PWL point (0.094079,0)
v1: Removing PWL point (0.094102,24)
v1: Removing PWL point (0.094176,0)
v1: Removing PWL point (0.094202,24)
v1: Removing PWL point (0.094274,0)
v1: Removing PWL point (0.094302,24)
v1: Removing PWL point (0.094371,0)
v1: Removing PWL point (0.094402,24)
v1: Removing PWL point (0.094468,0)
v1: Removing PWL point (0.094502,24)
v1: Removing PWL point (0.094565,0)
v1: Removing PWL point (0.094602,24)
v1: Removing PWL point (0.094662,0)
v1: Removing PWL point (0.094702,24)
v1: Removing PWL point (0.094759,0)
v1: Removing PWL point (0.094802,24)
v1: Removing PWL point (0.094856,0)
v1: Removing PWL point (0.094902,24)
v1: Removing PWL point (0.094953,0)
v1: Removing PWL point (0.095002,24)
v1: Removing PWL point (0.09505,0)
v1: Removing PWL point (0.095102,24)
v1: Removing PWL point (0.095147,0)
v1: Removing PWL point (0.095202,24)
v1: Removing PWL point (0.095244,0)
v1: Removing PWL point (0.095302,24)
v1: Removing PWL point (0.095341,0)
v1: Removing PWL point (0.095402,24)
v1: Removing PWL point (0.095438,0)
v1: Removing PWL point (0.095502,24)
v1: Removing PWL point (0.095535,0)
v1: Removing PWL point (0.095602,24)
v1: Removing PWL point (0.095632,0)
v1: Removing PWL point (0.095702,24)
v1: Removing PWL point (0.095729,0)
v1: Removing PWL point (0.095802,24)
v1: Removing PWL point (0.095827,0)
v1: Removing PWL point (0.095902,24)
v1: Removing PWL point (0.095924,0)
v1: Removing PWL point (0.096002,24)
v1: Removing PWL point (0.096022,0)
v1: Removing PWL point (0.096102,24)
v1: Removing PWL point (0.096119,0)
v1: Removing PWL point (0.096202,24)
v1: Removing PWL point (0.096217,0)
v1: Removing PWL point (0.096302,24)
v1: Removing PWL point (0.096315,0)
v1: Removing PWL point (0.096402,24)
v1: Removing PWL point (0.096413,0)
v1: Removing PWL point (0.096502,24)
v1: Removing PWL point (0.096511,0)
v1: Removing PWL point (0.096602,24)
v1: Removing PWL point (0.096609,0)
v1: Removing PWL point (0.096702,24)
v1: Removing PWL point (0.096708,0)
v1: Removing PWL point (0.096802,24)
v1: Removing PWL point (0.096806,0)
v1: Removing PWL point (0.096902,24)
v1: Removing PWL point (0.096905,0)
v1: Removing PWL point (0.097004,0)
v1: Removing PWL point (0.097103,0)
v1: Removing PWL point (0.097903,0)
v1: Removing PWL point (0.098004,0)
v1: Removing PWL point (0.098102,24)
v1: Removing PWL point (0.098105,0)
v1: Removing PWL point (0.098202,24)
v1: Removing PWL point (0.098206,0)
v1: Removing PWL point (0.098302,24)
v1: Removing PWL point (0.098308,0)
v1: Removing PWL point (0.098402,24)
v1: Removing PWL point (0.098409,0)
v1: Removing PWL point (0.098502,24)
v1: Removing PWL point (0.098511,0)
v1: Removing PWL point (0.098602,24)
v1: Removing PWL point (0.098613,0)
v1: Removing PWL point (0.098702,24)
v1: Removing PWL point (0.098715,0)
v1: Removing PWL point (0.098802,24)
v1: Removing PWL point (0.098818,0)
v1: Removing PWL point (0.098902,24)
v1: Removing PWL point (0.09892,0)
v1: Removing PWL point (0.099002,24)
v1: Removing PWL point (0.099023,0)
v1: Removing PWL point (0.099102,24)
v1: Removing PWL point (0.099125,0)
v1: Removing PWL point (0.099202,24)
v1: Removing PWL point (0.099228,0)
v1: Removing PWL point (0.099302,24)
v1: Removing PWL point (0.099331,0)
v1: Removing PWL point (0.099402,24)
v1: Removing PWL point (0.099434,0)
v1: Removing PWL point (0.099502,24)
v1: Removing PWL point (0.099537,0)
v1: Removing PWL point (0.099602,24)
v1: Removing PWL point (0.09964,0)
v1: Removing PWL point (0.099702,24)
v1: Removing PWL point (0.099743,0)
v1: Removing PWL point (0.099802,24)
v1: Removing PWL point (0.099847,0)
v1: Removing PWL point (0.099902,24)
v1: Removing PWL point (0.09995,0)
Direct Newton iteration for .op point succeeded.
Total elapsed time: 1.281 seconds.

